  PTI INTERACTIVE POWER SYSTEM SIMULATOR--PSS(R)E Xplore SAT, DEC 16 2023  22:13



 SUBSYSTEM LOADING CHECK (INCLUDED: LINES; BREAKERS AND SWITCHES; TRANSFORMERS) (EXCLUDED: NONE)
 LOADINGS ABOVE 100.0 % OF RATING (MVA FOR TRANSFORMERS, CURRENT FOR NON-TRANSFORMER BRANCHES):

 X----------- FROM BUS ------------X X------------ TO BUS -------------X               RATING SET 1
   BUS#-SCT X-- NAME --X BASKV  AREA   BUS#-SCT X-- NAME --X BASKV  AREA CKT LOADING   RATE1 PERCENT
   2501     F.ALENT.2   60.000     1   3001     BEJA        60.000*    1  20    41.9    32.2   130.2